test/data/uiuc150.m
%% MATPOWER Case Format : Version 2
function mpc = uiuc150
mpc.version = '2';

%%-----  Power Flow Data  -----%%
%% system MVA base
mpc.baseMVA = 100;

%% bus data
%    bus_i    type    Pd    Qd    Gs    Bs    area    Vm    Va    baseKV    zone    Vmax    Vmin
mpc.bus = [
	1	2	0	0	0	0	1	1.100000	-0.000000	13.8	1	1.3	0.7
	2	1	184.31	52.53	0	0	1	1.100000	-0.000000	230	1	1.3	0.7
	3	1	165.52	47.17	0	0	1	1.100000	-0.000000	230	1	1.3	0.7
	4	1	156.81	44.69	0	0	1	1.100000	-0.000000	230	1	1.3	0.7
	5	1	168.45	48.01	0	0	1	1.100000	-0.000000	230	1	1.3	0.7
	6	1	156.89	44.71	0	0	1	1.100000	-0.000000	230	1	1.3	0.7
	7	1	134.58	38.36	0	0	1	1.100000	-0.000000	230	1	1.3	0.7
	8	1	195.4	55.69	0	0	1	1.100000	-0.000000	230	1	1.3	0.7
	9	1	176.31	50.25	0	0	1	1.100000	-0.000000	230	1	1.3	0.7
	10	1	72.72	20.73	0	0	1	1.100000	-0.000000	230	1	1.3	0.7
	11	1	189.93	54.13	0	0	1	1.100000	-0.000000	230	1	1.3	0.7
	12	1	125.3	35.71	0	0	1	1.100000	-0.000000	230	1	1.3	0.7
	13	1	177.27	50.52	0	0	1	1.100000	-0.000000	230	1	1.3	0.7
	14	1	199.17	56.76	0	0	1	1.100000	-0.000000	230	1	1.3	0.7
	15	1	178.44	50.85	0	0	1	1.100000	-0.000000	230	1	1.3	0.7
	16	1	119.77	34.13	0	0	1	1.100000	-0.000000	230	1	1.3	0.7
	17	1	162.89	46.42	0	0	1	1.100000	-0.000000	230	1	1.3	0.7
	18	1	129.66	36.95	0	0	1	1.100000	-0.000000	230	1	1.3	0.7
	19	1	161.67	46.08	0	0	1	1.100000	-0.000000	230	1	1.3	0.7
	20	1	99.26	28.29	0	0	1	1.100000	-0.000000	230	1	1.3	0.7
	21	1	180.09	51.33	0	0	1	1.100000	-0.000000	230	1	1.3	0.7
	22	1	194.99	55.57	0	155.01	1	1.100000	-0.000000	230	1	1.3	0.7
	23	1	187.18	53.35	0	0	1	1.100000	-0.000000	230	1	1.3	0.7
	24	1	60.74	17.31	0	0	1	1.100000	-0.000000	230	1	1.3	0.7
	25	1	39.54	11.27	0	0	1	1.100000	-0.000000	230	1	1.3	0.7
	26	1	161.77	46.11	0	151.3	1	1.100000	-0.000000	230	1	1.3	0.7
	27	1	199.09	56.74	0	0	1	1.100000	-0.000000	230	1	1.3	0.7
	28	1	131.12	37.37	0	0	1	1.100000	-0.000000	230	1	1.3	0.7
	29	1	141.48	40.32	0	0	1	1.100000	-0.000000	230	1	1.3	0.7
	30	1	149.51	42.61	0	0	1	1.100000	-0.000000	230	1	1.3	0.7
	31	1	153.82	43.84	0	0	1	1.100000	-0.000000	230	1	1.3	0.7
	32	1	167.52	47.74	0	0	1	1.100000	-0.000000	230	1	1.3	0.7
	33	1	199.09	56.74	0	0	1	1.100000	-0.000000	230	1	1.3	0.7
	34	1	158.01	45.03	0	0	1	1.100000	-0.000000	230	1	1.3	0.7
	35	1	166.05	47.32	0	0	1	1.100000	-0.000000	230	1	1.3	0.7
	36	1	10	2.85	0	0	1	1.100000	-0.000000	230	1	1.3	0.7
	37	1	87.53	24.94	0	0	1	1.100000	-0.000000	230	1	1.3	0.7
	38	1	42.84	12.21	0	0	1	1.100000	-0.000000	230	1	1.3	0.7
	39	1	68.29	19.46	0	0	1	1.100000	-0.000000	230	1	1.3	0.7
	40	1	186.84	53.25	0	0	1	1.100000	-0.000000	230	1	1.3	0.7
	41	1	161.23	45.95	0	0	1	1.100000	-0.000000	230	1	1.3	0.7
	42	1	155.94	44.44	0	0	1	1.100000	-0.000000	230	1	1.3	0.7
	43	1	188.78	53.8	0	0	1	1.100000	-0.000000	230	1	1.3	0.7
	44	1	114.86	32.74	0	0	1	1.100000	-0.000000	230	1	1.3	0.7
	45	1	197.41	56.26	0	0	1	1.100000	-0.000000	230	1	1.3	0.7
	46	1	93.46	26.64	0	0	1	1.100000	-0.000000	230	1	1.3	0.7
	47	1	181.6	51.76	0	0	1	1.100000	-0.000000	230	1	1.3	0.7
	48	1	31.4	8.95	0	0	1	1.100000	-0.000000	230	1	1.3	0.7
	49	1	199.46	56.85	0	0	1	1.100000	-0.000000	230	1	1.3	0.7
	50	1	154.51	44.03	0	0	1	1.100000	-0.000000	230	1	1.3	0.7
	51	1	179.2	51.07	0	0	1	1.100000	-0.000000	230	1	1.3	0.7
	52	1	126.82	36.14	0	0	1	1.100000	-0.000000	230	1	1.3	0.7
	53	1	184.31	52.53	0	0	1	1.100000	-0.000000	230	1	1.3	0.7
	54	1	185.6	52.9	0	0	1	1.100000	-0.000000	230	1	1.3	0.7
	55	1	112.63	32.1	0	0	1	1.100000	-0.000000	230	1	1.3	0.7
	56	1	177	50.44	0	0	1	1.100000	-0.000000	230	1	1.3	0.7
	57	1	129.66	36.95	0	0	1	1.100000	-0.000000	230	1	1.3	0.7
	58	1	66.01	18.81	0	0	1	1.100000	-0.000000	230	1	1.3	0.7
	59	1	121.51	34.63	0	0	1	1.100000	-0.000000	230	1	1.3	0.7
	60	1	124.07	35.36	0	0	1	1.100000	-0.000000	230	1	1.3	0.7
	61	1	131.73	37.54	0	0	1	1.100000	-0.000000	230	1	1.3	0.7
	62	1	166.18	47.36	0	0	1	1.100000	-0.000000	230	1	1.3	0.7
	63	1	185.44	52.85	0	0	1	1.100000	-0.000000	230	1	1.3	0.7
	64	1	193.86	55.25	0	0	1	1.100000	-0.000000	230	1	1.3	0.7
	65	1	118.74	33.84	0	0	1	1.100000	-0.000000	230	1	1.3	0.7
	66	1	88.78	25.3	0	0	1	1.100000	-0.000000	230	1	1.3	0.7
	67	1	154.15	43.93	0	0	1	1.100000	-0.000000	230	1	1.3	0.7
	68	1	66.69	19.01	0	0	1	1.100000	-0.000000	230	1	1.3	0.7
	69	1	64.75	18.45	0	0	1	1.100000	-0.000000	230	1	1.3	0.7
	70	1	33.9	9.66	0	0	1	1.100000	-0.000000	230	1	1.3	0.7
	71	1	197.85	56.39	0	0	1	1.100000	-0.000000	230	1	1.3	0.7
	72	1	166.18	47.36	0	0	1	1.100000	-0.000000	230	1	1.3	0.7
	73	1	87.93	25.06	0	0	1	1.100000	-0.000000	230	1	1.3	0.7
	74	1	173.84	49.55	0	0	1	1.100000	-0.000000	230	1	1.3	0.7
	75	1	146.93	41.87	0	0	1	1.100000	-0.000000	230	1	1.3	0.7
	76	1	168.55	48.04	0	0	1	1.100000	-0.000000	230	1	1.3	0.7
	77	1	147.63	42.08	0	0	1	1.100000	-0.000000	230	1	1.3	0.7
	78	1	177.72	50.65	0	0	1	1.100000	-0.000000	230	1	1.3	0.7
	79	1	191.23	54.5	0	152.42	1	1.100000	-0.000000	230	1	1.3	0.7
	80	1	167.84	47.83	0	0	1	1.100000	-0.000000	230	1	1.3	0.7
	81	1	163.74	46.67	0	0	1	1.100000	-0.000000	230	1	1.3	0.7
	82	1	152.56	43.48	0	0	1	1.100000	-0.000000	230	1	1.3	0.7
	83	1	83.51	23.8	0	0	1	1.100000	-0.000000	230	1	1.3	0.7
	84	1	67.18	19.15	0	0	1	1.100000	-0.000000	230	1	1.3	0.7
	85	1	64.87	18.49	0	0	1	1.100000	-0.000000	230	1	1.3	0.7
	86	1	186.9	53.27	0	0	1	1.100000	-0.000000	230	1	1.3	0.7
	87	1	96.15	27.4	0	0	1	1.100000	-0.000000	230	1	1.3	0.7
	88	1	65.71	18.73	0	0	1	1.100000	-0.000000	230	1	1.3	0.7
	89	1	179.49	51.15	0	0	1	1.100000	-0.000000	230	1	1.3	0.7
	90	1	198.93	56.7	0	0	1	1.100000	-0.000000	230	1	1.3	0.7
	91	1	65.65	18.71	0	0	1	1.100000	-0.000000	230	1	1.3	0.7
	92	1	0	0	0	0	1	1.100000	-0.000000	500	1	1.3	0.7
	93	1	0	0	0	0	1	1.100000	-0.000000	500	1	1.3	0.7
	94	1	0	0	0	0	1	1.100000	-0.000000	500	1	1.3	0.7
	95	1	0	0	0	0	1	1.100000	-0.000000	500	1	1.3	0.7
	96	1	0	0	0	0	1	1.100000	-0.000000	500	1	1.3	0.7
	97	1	0	0	0	0	1	1.100000	-0.000000	500	1	1.3	0.7
	98	1	0	0	0	0	1	1.100000	-0.000000	500	1	1.3	0.7
	99	1	0	0	0	0	1	1.100000	-0.000000	500	1	1.3	0.7
	100	1	0	0	0	0	1	1.100000	-0.000000	500	1	1.3	0.7
	101	1	0	0	0	0	1	1.100000	-0.000000	500	1	1.3	0.7
	102	1	0	0	0	0	1	1.100000	-0.000000	500	1	1.3	0.7
	103	1	0	0	0	0	1	1.100000	-0.000000	500	1	1.3	0.7
	104	1	0	0	0	0	1	1.100000	-0.000000	500	1	1.3	0.7
	105	1	0	0	0	0	1	1.100000	-0.000000	500	1	1.3	0.7
	106	1	0	0	0	0	1	1.100000	-0.000000	500	1	1.3	0.7
	107	1	0	0	0	0	1	1.100000	-0.000000	500	1	1.3	0.7
	108	1	0	0	0	0	1	1.100000	-0.000000	500	1	1.3	0.7
	109	1	0	0	0	0	1	1.100000	-0.000000	500	1	1.3	0.7
	110	2	0	0	0	0	1	1.100000	-0.000000	13.8	1	1.3	0.7
	111	2	0	0	0	0	1	1.100000	-0.000000	13.8	1	1.3	0.7
	112	2	0	0	0	0	1	1.100000	-0.000000	13.8	1	1.3	0.7
	113	2	0	0	0	0	1	1.100000	-0.000000	13.8	1	1.3	0.7
	114	2	0	0	0	0	1	1.100000	-0.000000	13.8	1	1.3	0.7
	115	2	0	0	0	0	1	1.100000	-0.000000	13.8	1	1.3	0.7
	116	2	0	0	0	0	1	1.100000	-0.000000	13.8	1	1.3	0.7
	117	2	0	0	0	0	1	1.100000	-0.000000	13.8	1	1.3	0.7
	118	2	0	0	0	0	1	1.100000	-0.000000	13.8	1	1.3	0.7
	119	2	0	0	0	0	1	1.100000	-0.000000	13.8	1	1.3	0.7
	120	2	0	0	0	0	1	1.100000	-0.000000	13.8	1	1.3	0.7
	121	2	0	0	0	0	1	1.100000	-0.000000	13.8	1	1.3	0.7
	122	2	0	0	0	0	1	1.100000	-0.000000	13.8	1	1.3	0.7
	123	2	0	0	0	0	1	1.100000	-0.000000	13.8	1	1.3	0.7
	124	2	0	0	0	0	1	1.100000	-0.000000	13.8	1	1.3	0.7
	125	2	0	0	0	0	1	1.100000	-0.000000	13.8	1	1.3	0.7
	126	2	0	0	0	0	1	1.100000	-0.000000	13.8	1	1.3	0.7
	127	2	0	0	0	0	1	1.100000	-0.000000	13.8	1	1.3	0.7
	128	2	0	0	0	0	1	1.100000	-0.000000	13.8	1	1.3	0.7
	129	2	0	0	0	0	1	1.100000	-0.000000	13.8	1	1.3	0.7
	130	2	0	0	0	0	1	1.100000	-0.000000	13.8	1	1.3	0.7
	131	2	0	0	0	0	1	1.100000	-0.000000	13.8	1	1.3	0.7
	132	3	0	0	0	0	1	1.100000	-0.000000	13.8	1	1.3	0.7
	133	2	0	0	0	0	1	1.100000	-0.000000	13.8	1	1.3	0.7
	134	2	0	0	0	0	1	1.100000	-0.000000	13.8	1	1.3	0.7
	135	2	0	0	0	0	1	1.100000	-0.000000	13.8	1	1.3	0.7
	136	1	0	0	0	0	1	1.100000	-0.000000	230	1	1.3	0.7
	137	1	0	0	0	0	1	1.100000	-0.000000	500	1	1.3	0.7
	138	1	0	0	0	0	1	1.100000	-0.000000	230	1	1.3	0.7
	139	1	0	0	0	0	1	1.100000	-0.000000	500	1	1.3	0.7
	140	1	0	0	0	0	1	1.100000	-0.000000	230	1	1.3	0.7
	141	1	0	0	0	0	1	1.100000	-0.000000	230	1	1.3	0.7
	142	1	0	0	0	0	1	1.100000	-0.000000	500	1	1.3	0.7
	143	1	0	0	0	0	1	1.100000	-0.000000	230	1	1.3	0.7
	144	1	0	0	0	0	1	1.100000	-0.000000	500	1	1.3	0.7
	145	1	0	0	0	0	1	1.100000	-0.000000	230	1	1.3	0.7
	146	1	0	0	0	0	1	1.100000	-0.000000	500	1	1.3	0.7
	147	1	0	0	0	0	1	1.100000	-0.000000	230	1	1.3	0.7
	148	1	0	0	0	0	1	1.100000	-0.000000	500	1	1.3	0.7
	149	1	0	0	0	0	1	1.100000	-0.000000	230	1	1.3	0.7
	150	1	0	0	0	0	1	1.100000	-0.000000	500	1	1.3	0.7
];

%% generator data
%    bus    Pg    Qg    Qmax    Qmin    Vg    mBase    status    Pmax    Pmin    Pc1    Pc2    Qc1min    Qc1max    Qc2min    Qc2max    ramp_agc    ramp_10    ramp_30    ramp_q    apf
mpc.gen = [
	1	1098.72	261.28	952.77	-186.22	1.1	100	1	2042.6	0	0	0	0	0	0	0	0	0	0	-1000	0
	110	366.9	170.41	382.3	-43.96	1.1	100	1	683.1	0	0	0	0	0	0	0	0	0	0	-1000	0
	111	243.96	113.31	174.64	-22.21	1.1	100	1	454.2	0	0	0	0	0	0	0	0	0	0	-1000	0
	112	692.45	321.61	601.35	-117.54	1.1	100	1	1289.2	0	0	0	0	0	0	0	0	0	0	-1000	0
	113	340.21	208.69	354.48	-40.77	1.1	100	1	633.4	0	0	0	0	0	0	0	0	0	0	-1000	0
	114	340.21	208.69	354.48	-40.77	1.1	100	1	633.4	0	0	0	0	0	0	0	0	0	0	-1000	0
	115	147.81	90.67	105.81	-13.46	1.1	100	1	275.2	0	0	0	0	0	0	0	0	0	0	-1000	0
	116	364.81	86.87	380.11	-43.71	1.1	100	1	679.2	0	0	0	0	0	0	0	0	0	0	-1000	0
	117	364.81	86.87	380.11	-43.71	1.1	100	1	679.2	0	0	0	0	0	0	0	0	0	0	-1000	0
	118	364.81	86.87	380.11	-43.71	1.1	100	1	679.2	0	0	0	0	0	0	0	0	0	0	-1000	0
	119	1097.11	261.24	952.77	-186.22	1.1	100	1	2042.6	0	0	0	0	0	0	0	0	0	0	-1000	0
	120	238.35	85.03	170.62	-21.7	1.1	100	1	443.75	0	0	0	0	0	0	0	0	0	0	-1000	0
	121	238.35	85.03	170.62	-21.7	1.1	100	1	443.75	0	0	0	0	0	0	0	0	0	0	-1000	0
	122	711.68	253.89	618.04	-120.8	1.1	100	1	1325	0	0	0	0	0	0	0	0	0	0	-1000	0
	123	711.68	253.89	618.04	-120.8	1.1	100	1	1325	0	0	0	0	0	0	0	0	0	0	-1000	0
	124	363.92	175.61	379.19	-43.61	1.1	100	1	677.55	0	0	0	0	0	0	0	0	0	0	-1000	0
	125	363.92	175.61	379.19	-43.61	1.1	100	1	677.55	0	0	0	0	0	0	0	0	0	0	-1000	0
	126	363.92	175.61	379.19	-43.61	1.1	100	1	677.55	0	0	0	0	0	0	0	0	0	0	-1000	0
	127	363.92	175.61	379.19	-43.61	1.1	100	1	677.55	0	0	0	0	0	0	0	0	0	0	-1000	0
	128	545.17	263.07	473.45	-92.54	1.1	100	1	1015	0	0	0	0	0	0	0	0	0	0	-1000	0
	129	184.82	91.05	132.3	-16.83	1.1	100	1	344.1	0	0	0	0	0	0	0	0	0	0	-1000	0
	130	428.08	99.36	306.44	-38.98	1.1	100	1	797	0	0	0	0	0	0	0	0	0	0	-1000	0
	131	428.08	99.36	306.44	-38.98	1.1	100	1	797	0	0	0	0	0	0	0	0	0	0	-1000	0
	132	428.08	99.36	306.44	-38.98	1.1	100	1	797	0	0	0	0	0	0	0	0	0	0	-1000	0
	133	996.59	231.32	683.44	-150.88	1.1	100	1	1855.45	0	0	0	0	0	0	0	0	0	0	-1000	0
	134	996.59	231.32	683.44	-150.88	1.1	100	1	1855.45	0	0	0	0	0	0	0	0	0	0	-1000	0
	135	24.55	17.57	17.57	-2.24	1.1	100	1	45.7	0	0	0	0	0	0	0	0	0	0	-1000	0
];

%% branch data
%    fbus    tbus    r    x    b    rateA    rateB    rateC    ratio    angle    status    angmin    angmax
mpc.branch = [
	2	21	0.00318	0.02264	0.04154	402.4	0.0	0.0	1.0	0.0	1	-30.0	30.0
	2	14	0.00546	0.0389	0.07137	402.4	0.0	0.0	1.0	0.0	1	-30.0	30.0
	4	30	0.00111	0.0079	0.01449	402.4	0.0	0.0	1.0	0.0	1	-30.0	30.0
	4	19	0.00147	0.01048	0.01922	402.4	0.0	0.0	1.0	0.0	1	-30.0	30.0
	4	18	0.00118	0.00838	0.01538	402.4	0.0	0.0	1.0	0.0	1	-30.0	30.0
	5	16	0.00254	0.01812	0.03325	402.4	0.0	0.0	1.0	0.0	1	-30.0	30.0
	5	30	0.00163	0.01161	0.0213	402.4	0.0	0.0	1.0	0.0	1	-30.0	30.0
	6	14	0.00521	0.03709	0.06805	402.4	0.0	0.0	1.0	0.0	1	-30.0	30.0
	6	13	0.00282	0.02007	0.03682	402.4	0.0	0.0	1.0	0.0	1	-30.0	30.0
	6	28	0.00255	0.01817	0.03334	402.4	0.0	0.0	1.0	0.0	1	-30.0	30.0
	7	38	0.00589	0.04194	0.07695	402.4	0.0	0.0	1.0	0.0	1	-30.0	30.0
	7	8	0.0066	0.047	0.08623	402.4	0.0	0.0	1.0	0.0	1	-30.0	30.0
	8	23	0.00224	0.01597	0.02929	402.4	0.0	0.0	1.0	0.0	1	-30.0	30.0
	9	39	0.00549	0.03908	0.0717	402.4	0.0	0.0	1.0	0.0	1	-30.0	30.0
	9	23	0.00568	0.04045	0.07421	402.4	0.0	0.0	1.0	0.0	1	-30.0	30.0
	9	26	0.00468	0.03335	0.06118	402.4	0.0	0.0	1.0	0.0	1	-30.0	30.0
	10	141	0.00437	0.03115	0.05716	402.4	0.0	0.0	1.0	0.0	1	-30.0	30.0
	10	25	0.00591	0.04211	0.07726	402.4	0.0	0.0	1.0	0.0	1	-30.0	30.0
	11	14	0.00252	0.01798	0.03299	402.4	0.0	0.0	1.0	0.0	1	-30.0	30.0
	12	13	0.00516	0.03674	0.06741	402.4	0.0	0.0	1.0	0.0	1	-30.0	30.0
	12	143	0.00651	0.04634	0.08502	402.4	0.0	0.0	1.0	0.0	1	-30.0	30.0
	13	16	0.0027	0.01925	0.03532	402.4	0.0	0.0	1.0	0.0	1	-30.0	30.0
	15	17	0.0025	0.01781	0.03267	402.4	0.0	0.0	1.0	0.0	1	-30.0	30.0
	16	26	0.00314	0.02239	0.04107	402.4	0.0	0.0	1.0	0.0	1	-30.0	30.0
	17	21	0.00185	0.01316	0.02415	402.4	0.0	0.0	1.0	0.0	1	-30.0	30.0
	18	22	0.00071	0.00506	0.00928	402.4	0.0	0.0	1.0	0.0	1	-30.0	30.0
	19	23	0.00202	0.01436	0.02635	402.4	0.0	0.0	1.0	0.0	1	-30.0	30.0
	19	3	0.00545	0.0388	0.07119	402.4	0.0	0.0	1.0	0.0	1	-30.0	30.0
	20	143	0.00686	0.04887	0.08966	402.4	0.0	0.0	1.0	0.0	1	-30.0	30.0
	21	29	0.00112	0.00799	0.01466	402.4	0.0	0.0	1.0	0.0	1	-30.0	30.0
	22	30	0.00119	0.0085	0.0156	402.4	0.0	0.0	1.0	0.0	1	-30.0	30.0
	22	29	0.00059	0.00419	0.00769	402.4	0.0	0.0	1.0	0.0	1	-30.0	30.0
	22	30	0.00119	0.0085	0.0156	402.4	0.0	0.0	1.0	0.0	1	-30.0	30.0
	24	143	0.00068	0.00482	0.00884	402.4	0.0	0.0	1.0	0.0	1	-30.0	30.0
	28	29	0.00109	0.00775	0.01422	402.4	0.0	0.0	1.0	0.0	1	-30.0	30.0
	31	41	0.00388	0.02764	0.05072	402.4	0.0	0.0	1.0	0.0	1	-30.0	30.0
	31	38	0.00561	0.03996	0.07331	402.4	0.0	0.0	1.0	0.0	1	-30.0	30.0
	31	40	0.00358	0.02551	0.04679	402.4	0.0	0.0	1.0	0.0	1	-30.0	30.0
	32	36	0.00856	0.061	0.11191	402.4	0.0	0.0	1.0	0.0	1	-30.0	30.0
	32	40	0.00178	0.01265	0.0232	402.4	0.0	0.0	1.0	0.0	1	-30.0	30.0
	33	37	0.00539	0.0384	0.07046	402.4	0.0	0.0	1.0	0.0	1	-30.0	30.0
	34	36	0.00527	0.03754	0.06887	402.4	0.0	0.0	1.0	0.0	1	-30.0	30.0
	35	37	0.0046	0.03276	0.0601	402.4	0.0	0.0	1.0	0.0	1	-30.0	30.0
	35	145	0.00099	0.00706	0.01295	402.4	0.0	0.0	1.0	0.0	1	-30.0	30.0
	35	145	0.00099	0.00706	0.01295	402.4	0.0	0.0	1.0	0.0	1	-30.0	30.0
	35	34	0.00334	0.0238	0.04367	402.4	0.0	0.0	1.0	0.0	1	-30.0	30.0
	37	38	0.00504	0.03592	0.06589	402.4	0.0	0.0	1.0	0.0	1	-30.0	30.0
	40	41	0.00173	0.01229	0.02255	402.4	0.0	0.0	1.0	0.0	1	-30.0	30.0
	42	43	0.00133	0.0095	0.01743	402.4	0.0	0.0	1.0	0.0	1	-30.0	30.0
	44	42	0.00585	0.04163	0.07638	402.4	0.0	0.0	1.0	0.0	1	-30.0	30.0
	44	149	0.00359	0.02554	0.04685	402.4	0.0	0.0	1.0	0.0	1	-30.0	30.0
	45	48	0.0036	0.02565	0.04706	402.4	0.0	0.0	1.0	0.0	1	-30.0	30.0
	45	42	0.00331	0.02359	0.04328	402.4	0.0	0.0	1.0	0.0	1	-30.0	30.0
	46	149	0.00221	0.01574	0.02887	402.4	0.0	0.0	1.0	0.0	1	-30.0	30.0
	46	47	0.00354	0.02518	0.0462	402.4	0.0	0.0	1.0	0.0	1	-30.0	30.0
	47	48	0.00858	0.0611	0.1121	402.4	0.0	0.0	1.0	0.0	1	-30.0	30.0
	47	43	0.00291	0.02073	0.03803	402.4	0.0	0.0	1.0	0.0	1	-30.0	30.0
	49	52	0.00307	0.0219	0.04018	402.4	0.0	0.0	1.0	0.0	1	-30.0	30.0
	49	63	0.00238	0.01695	0.0311	402.4	0.0	0.0	1.0	0.0	1	-30.0	30.0
	50	56	0.00261	0.01861	0.03415	402.4	0.0	0.0	1.0	0.0	1	-30.0	30.0
	50	55	0.00491	0.03494	0.0641	402.4	0.0	0.0	1.0	0.0	1	-30.0	30.0
	50	64	0.00284	0.02024	0.03713	402.4	0.0	0.0	1.0	0.0	1	-30.0	30.0
	51	149	0.00381	0.02716	0.04983	402.4	0.0	0.0	1.0	0.0	1	-30.0	30.0
	51	58	0.00553	0.03938	0.07224	402.4	0.0	0.0	1.0	0.0	1	-30.0	30.0
	51	54	0.00322	0.02295	0.04211	402.4	0.0	0.0	1.0	0.0	1	-30.0	30.0
	52	60	0.00386	0.02746	0.05038	402.4	0.0	0.0	1.0	0.0	1	-30.0	30.0
	52	56	0.00241	0.01714	0.03145	402.4	0.0	0.0	1.0	0.0	1	-30.0	30.0
	53	138	0.00193	0.01376	0.02525	402.4	0.0	0.0	1.0	0.0	1	-30.0	30.0
	53	138	0.00193	0.01376	0.02525	402.4	0.0	0.0	1.0	0.0	1	-30.0	30.0
	53	62	0.00205	0.01459	0.02676	402.4	0.0	0.0	1.0	0.0	1	-30.0	30.0
	54	60	0.00425	0.03027	0.05554	402.4	0.0	0.0	1.0	0.0	1	-30.0	30.0
	55	138	0.00778	0.05539	0.10163	402.4	0.0	0.0	1.0	0.0	1	-30.0	30.0
	56	63	0.00206	0.01466	0.02689	402.4	0.0	0.0	1.0	0.0	1	-30.0	30.0
	56	58	0.00624	0.04441	0.08147	402.4	0.0	0.0	1.0	0.0	1	-30.0	30.0
	57	90	0.00592	0.04216	0.07735	402.4	0.0	0.0	1.0	0.0	1	-30.0	30.0
	57	59	0.00549	0.0391	0.07173	402.4	0.0	0.0	1.0	0.0	1	-30.0	30.0
	59	138	0.0015	0.01071	0.01965	402.4	0.0	0.0	1.0	0.0	1	-30.0	30.0
	61	33	0.00607	0.04322	0.0793	402.4	0.0	0.0	1.0	0.0	1	-30.0	30.0
	61	62	0.00323	0.02303	0.04225	402.4	0.0	0.0	1.0	0.0	1	-30.0	30.0
	62	64	0.00141	0.01006	0.01846	402.4	0.0	0.0	1.0	0.0	1	-30.0	30.0
	63	64	0.00139	0.00992	0.0182	402.4	0.0	0.0	1.0	0.0	1	-30.0	30.0
	65	86	0.00471	0.03356	0.06158	402.4	0.0	0.0	1.0	0.0	1	-30.0	30.0
	65	83	0.00502	0.03578	0.06565	402.4	0.0	0.0	1.0	0.0	1	-30.0	30.0
	65	73	0.00466	0.03318	0.06087	402.4	0.0	0.0	1.0	0.0	1	-30.0	30.0
	66	71	0.00212	0.01509	0.02769	402.4	0.0	0.0	1.0	0.0	1	-30.0	30.0
	66	67	0.0039	0.02777	0.05095	402.4	0.0	0.0	1.0	0.0	1	-30.0	30.0
	67	136	0.00407	0.02896	0.05313	402.4	0.0	0.0	1.0	0.0	1	-30.0	30.0
	67	136	0.00407	0.02896	0.05313	402.4	0.0	0.0	1.0	0.0	1	-30.0	30.0
	67	75	0.00528	0.03757	0.06893	402.4	0.0	0.0	1.0	0.0	1	-30.0	30.0
	68	85	0.00559	0.03982	0.07306	402.4	0.0	0.0	1.0	0.0	1	-30.0	30.0
	68	73	0.00553	0.0394	0.07228	402.4	0.0	0.0	1.0	0.0	1	-30.0	30.0
	69	87	0.00541	0.03855	0.07074	402.4	0.0	0.0	1.0	0.0	1	-30.0	30.0
	69	70	0.00581	0.04139	0.07594	402.4	0.0	0.0	1.0	0.0	1	-30.0	30.0
	70	136	0.00168	0.01199	0.02199	402.4	0.0	0.0	1.0	0.0	1	-30.0	30.0
	70	72	0.0078	0.05557	0.10196	402.4	0.0	0.0	1.0	0.0	1	-30.0	30.0
	71	74	0.00108	0.00769	0.01411	402.4	0.0	0.0	1.0	0.0	1	-30.0	30.0
	71	74	0.00108	0.00769	0.01411	402.4	0.0	0.0	1.0	0.0	1	-30.0	30.0
	71	72	0.00248	0.01768	0.03243	402.4	0.0	0.0	1.0	0.0	1	-30.0	30.0
	71	82	0.00174	0.01238	0.02271	402.4	0.0	0.0	1.0	0.0	1	-30.0	30.0
	73	136	0.0055	0.03917	0.07187	402.4	0.0	0.0	1.0	0.0	1	-30.0	30.0
	74	78	0.00096	0.00682	0.01252	402.4	0.0	0.0	1.0	0.0	1	-30.0	30.0
	75	78	0.00143	0.01017	0.01866	402.4	0.0	0.0	1.0	0.0	1	-30.0	30.0
	76	79	0.00103	0.00733	0.01345	402.4	0.0	0.0	1.0	0.0	1	-30.0	30.0
	76	78	0.00121	0.00864	0.01586	402.4	0.0	0.0	1.0	0.0	1	-30.0	30.0
	76	77	0.00191	0.01361	0.02497	402.4	0.0	0.0	1.0	0.0	1	-30.0	30.0
	77	81	0.00204	0.01453	0.02666	402.4	0.0	0.0	1.0	0.0	1	-30.0	30.0
	79	80	0.00136	0.00966	0.01772	402.4	0.0	0.0	1.0	0.0	1	-30.0	30.0
	79	81	0.00115	0.0082	0.01504	402.4	0.0	0.0	1.0	0.0	1	-30.0	30.0
	80	82	0.00087	0.00622	0.01141	402.4	0.0	0.0	1.0	0.0	1	-30.0	30.0
	83	20	0.00642	0.04572	0.08389	402.4	0.0	0.0	1.0	0.0	1	-30.0	30.0
	84	24	0.00501	0.03571	0.06552	402.4	0.0	0.0	1.0	0.0	1	-30.0	30.0
	85	84	0.00591	0.04206	0.07716	402.4	0.0	0.0	1.0	0.0	1	-30.0	30.0
	87	147	0.00465	0.0331	0.06073	402.4	0.0	0.0	1.0	0.0	1	-30.0	30.0
	88	147	0.00382	0.02721	0.04992	402.4	0.0	0.0	1.0	0.0	1	-30.0	30.0
	88	89	0.00843	0.06004	0.11016	402.4	0.0	0.0	1.0	0.0	1	-30.0	30.0
	89	26	0.00661	0.04705	0.08632	402.4	0.0	0.0	1.0	0.0	1	-30.0	30.0
	90	91	0.00611	0.04352	0.07984	402.4	0.0	0.0	1.0	0.0	1	-30.0	30.0
	90	25	0.00514	0.03663	0.06721	402.4	0.0	0.0	1.0	0.0	1	-30.0	30.0
	91	25	0.00611	0.04351	0.07983	402.4	0.0	0.0	1.0	0.0	1	-30.0	30.0
	92	100	6.0e-5	0.00126	0.13886	3585.3	0.0	0.0	1.0	0.0	1	-30.0	30.0
	93	97	0.00048	0.01006	1.1105	3585.3	0.0	0.0	1.0	0.0	1	-30.0	30.0
	96	102	0.0001	0.00203	0.22352	3585.3	0.0	0.0	1.0	0.0	1	-30.0	30.0
	96	101	0.0002	0.00428	0.47225	3585.3	0.0	0.0	1.0	0.0	1	-30.0	30.0
	98	108	0.00011	0.00228	0.25174	3585.3	0.0	0.0	1.0	0.0	1	-30.0	30.0
	99	137	0.00044	0.00934	1.03107	3585.3	0.0	0.0	1.0	0.0	1	-30.0	30.0
	103	97	0.00018	0.0039	0.43064	3585.3	0.0	0.0	1.0	0.0	1	-30.0	30.0
	104	137	0.00036	0.00751	0.82922	3585.3	0.0	0.0	1.0	0.0	1	-30.0	30.0
	104	99	0.0001	0.00212	0.23376	3585.3	0.0	0.0	1.0	0.0	1	-30.0	30.0
	105	102	0.00044	0.00931	1.02721	3585.3	0.0	0.0	1.0	0.0	1	-30.0	30.0
	106	102	0.00033	0.00698	0.77057	3585.3	0.0	0.0	1.0	0.0	1	-30.0	30.0
	106	94	0.00048	0.01018	1.12392	3585.3	0.0	0.0	1.0	0.0	1	-30.0	30.0
	107	139	0.00028	0.00588	0.64896	3585.3	0.0	0.0	1.0	0.0	1	-30.0	30.0
	108	101	0.00038	0.00809	0.89305	3585.3	0.0	0.0	1.0	0.0	1	-30.0	30.0
	109	107	0.0004	0.00849	0.93683	3585.3	0.0	0.0	1.0	0.0	1	-30.0	30.0
	109	93	0.0003	0.00625	0.6903	3585.3	0.0	0.0	1.0	0.0	1	-30.0	30.0
	109	92	0.0001	0.00215	0.23729	3585.3	0.0	0.0	1.0	0.0	1	-30.0	30.0
	137	95	0.00031	0.00648	0.71484	3585.3	0.0	0.0	1.0	0.0	1	-30.0	30.0
	139	100	0.00021	0.00435	0.48054	3585.3	0.0	0.0	1.0	0.0	1	-30.0	30.0
	140	39	0.00378	0.02696	0.04946	402.4	0.0	0.0	1.0	0.0	1	-30.0	30.0
	140	27	0.00263	0.0187	0.0343	402.4	0.0	0.0	1.0	0.0	1	-30.0	30.0
	141	17	0.00247	0.01758	0.03226	402.4	0.0	0.0	1.0	0.0	1	-30.0	30.0
	141	17	0.00247	0.01758	0.03226	402.4	0.0	0.0	1.0	0.0	1	-30.0	30.0
	141	15	0.00266	0.01897	0.03481	402.4	0.0	0.0	1.0	0.0	1	-30.0	30.0
	141	3	0.00281	0.02	0.03669	402.4	0.0	0.0	1.0	0.0	1	-30.0	30.0
	142	101	0.00018	0.00377	0.41573	3585.3	0.0	0.0	1.0	0.0	1	-30.0	30.0
	144	108	0.00045	0.00947	1.04538	3585.3	0.0	0.0	1.0	0.0	1	-30.0	30.0
	144	101	0.00067	0.0142	1.56758	3585.3	0.0	0.0	1.0	0.0	1	-30.0	30.0
	144	98	0.0004	0.0084	0.92687	3585.3	0.0	0.0	1.0	0.0	1	-30.0	30.0
	144	95	0.00048	0.01006	1.11046	3585.3	0.0	0.0	1.0	0.0	1	-30.0	30.0
	145	40	0.00218	0.01555	0.02852	402.4	0.0	0.0	1.0	0.0	1	-30.0	30.0
	145	32	0.00242	0.01721	0.03157	402.4	0.0	0.0	1.0	0.0	1	-30.0	30.0
	146	107	0.00035	0.00736	0.81179	3585.3	0.0	0.0	1.0	0.0	1	-30.0	30.0
	146	105	0.00061	0.01292	1.42581	3585.3	0.0	0.0	1.0	0.0	1	-30.0	30.0
	146	94	9.0e-5	0.00197	0.21765	3585.3	0.0	0.0	1.0	0.0	1	-30.0	30.0
	148	95	0.00047	0.00993	1.09577	3585.3	0.0	0.0	1.0	0.0	1	-30.0	30.0
	150	97	0.00026	0.00548	0.60445	3585.3	0.0	0.0	1.0	0.0	1	-30.0	30.0
	150	93	0.00028	0.00589	0.64955	3585.3	0.0	0.0	1.0	0.0	1	-30.0	30.0
	5	21	0.0	-0.01061	0.0	2000.0	0.0	0.0	1.0	0.0	1	-30.0	30.0
	8	102	0.0002	0.016	0.0	1000.0	0.0	0.0	1.0	0.0	1	-30.0	30.0
	11	98	0.0002	0.016	0.0	1000.0	0.0	0.0	1.0	0.0	1	-30.0	30.0
	14	108	0.0002	0.016	0.0	1000.0	0.0	0.0	1.0	0.0	1	-30.0	30.0
	22	101	0.0002	0.016	0.0	1000.0	0.0	0.0	1.0	0.0	1	-30.0	30.0
	22	101	0.0002	0.016	0.0	1000.0	0.0	0.0	1.0	0.0	1	-30.0	30.0
	23	96	0.0002	0.016	0.0	1000.0	0.0	0.0	1.0	0.0	1	-30.0	30.0
	27	106	0.0002	0.016	0.0	1000.0	0.0	0.0	1.0	0.0	1	-30.0	30.0
	33	107	0.0002	0.016	0.0	1000.0	0.0	0.0	1.0	0.0	1	-30.0	30.0
	40	94	0.0002	0.016	0.0	1000.0	0.0	0.0	1.0	0.0	1	-30.0	30.0
	43	97	0.0002	0.016	0.0	1000.0	0.0	0.0	1.0	0.0	1	-30.0	30.0
	45	103	0.0002	0.016	0.0	1000.0	0.0	0.0	1.0	0.0	1	-30.0	30.0
	49	109	0.0002	0.016	0.0	1000.0	0.0	0.0	1.0	0.0	1	-30.0	30.0
	54	93	0.0002	0.016	0.0	1000.0	0.0	0.0	1.0	0.0	1	-30.0	30.0
	63	92	0.0002	0.016	0.0	1000.0	0.0	0.0	1.0	0.0	1	-30.0	30.0
	64	100	0.0002	0.016	0.0	1000.0	0.0	0.0	1.0	0.0	1	-30.0	30.0
	71	104	0.0002	0.016	0.0	1000.0	0.0	0.0	1.0	0.0	1	-30.0	30.0
	79	99	0.0002	0.016	0.0	1000.0	0.0	0.0	1.0	0.0	1	-30.0	30.0
	79	99	0.0002	0.016	0.0	1000.0	0.0	0.0	1.0	0.0	1	-30.0	30.0
	86	95	0.0002	0.016	0.0	1000.0	0.0	0.0	1.0	0.0	1	-30.0	30.0
	90	105	0.0002	0.016	0.0	1000.0	0.0	0.0	1.0	0.0	1	-30.0	30.0
	136	137	0.0002	0.016	0.0	1000.0	0.0	0.0	1.0	0.0	1	-30.0	30.0
	136	137	0.0002	0.016	0.0	1000.0	0.0	0.0	1.0	0.0	1	-30.0	30.0
	137	127	0.00037	0.01476	0.0	677.5	0.0	0.0	1.0	0.0	1	-30.0	30.0
	137	128	0.00025	0.00985	0.0	1015.0	0.0	0.0	1.0	0.0	1	-30.0	30.0
	137	126	0.00037	0.01476	0.0	677.5	0.0	0.0	1.0	0.0	1	-30.0	30.0
	137	125	0.00037	0.01476	0.0	677.5	0.0	0.0	1.0	0.0	1	-30.0	30.0
	137	124	0.00037	0.01476	0.0	677.5	0.0	0.0	1.0	0.0	1	-30.0	30.0
	138	139	0.0002	0.016	0.0	1000.0	0.0	0.0	1.0	0.0	1	-30.0	30.0
	138	139	0.0002	0.016	0.0	1000.0	0.0	0.0	1.0	0.0	1	-30.0	30.0
	139	122	0.00019	0.00755	0.0	1325.0	0.0	0.0	1.0	0.0	1	-30.0	30.0
	139	121	0.00056	0.02254	0.0	443.79999999999995	0.0	0.0	1.0	0.0	1	-30.0	30.0
	139	120	0.00056	0.02254	0.0	443.79999999999995	0.0	0.0	1.0	0.0	1	-30.0	30.0
	139	123	0.00019	0.00755	0.0	1325.0	0.0	0.0	1.0	0.0	1	-30.0	30.0
	140	135	0.00547	0.21882	0.0	45.7	0.0	0.0	1.0	0.0	1	-30.0	30.0
	141	142	0.0002	0.016	0.0	1000.0	0.0	0.0	1.0	0.0	1	-30.0	30.0
	141	142	0.0002	0.016	0.0	1000.0	0.0	0.0	1.0	0.0	1	-30.0	30.0
	142	112	0.00019	0.00776	0.0	1289.2	0.0	0.0	1.0	0.0	1	-30.0	30.0
	142	111	0.00055	0.02202	0.0	454.2	0.0	0.0	1.0	0.0	1	-30.0	30.0
	142	110	0.00037	0.01464	0.0	683.1	0.0	0.0	1.0	0.0	1	-30.0	30.0
	143	144	0.0002	0.016	0.0	1000.0	0.0	0.0	1.0	0.0	1	-30.0	30.0
	143	144	0.0002	0.016	0.0	1000.0	0.0	0.0	1.0	0.0	1	-30.0	30.0
	144	119	0.00012	0.0049	0.0	2042.6	0.0	0.0	1.0	0.0	1	-30.0	30.0
...
];

%%-----  OPF Data  -----%%
%% generator cost data
%    1    startup    shutdown    n    x1    y1    ...    xn    yn
%    2    startup    shutdown    n    c(n-1)    ...    c0
mpc.gencost = [
	2	0	0	3	0.11	5.0	0.0
	2	0	0	3	0.11	5.0	0.0
	2	0	0	3	0.11	5.0	0.0
	2	0	0	3	0.11	5.0	0.0
	2	0	0	3	0.11	5.0	0.0
	2	0	0	3	0.11	5.0	0.0
	2	0	0	3	0.11	5.0	0.0
	2	0	0	3	0.11	5.0	0.0
	2	0	0	3	0.11	5.0	0.0
	2	0	0	3	0.11	5.0	0.0
	2	0	0	3	0.11	5.0	0.0
	2	0	0	3	0.11	5.0	0.0
	2	0	0	3	0.11	5.0	0.0
	2	0	0	3	0.11	5.0	0.0
	2	0	0	3	0.11	5.0	0.0
	2	0	0	3	0.11	5.0	0.0
	2	0	0	3	0.11	5.0	0.0
	2	0	0	3	0.11	5.0	0.0
	2	0	0	3	0.11	5.0	0.0
	2	0	0	3	0.11	5.0	0.0
	2	0	0	3	0.11	5.0	0.0
	2	0	0	3	0.11	5.0	0.0
	2	0	0	3	0.11	5.0	0.0
	2	0	0	3	0.11	5.0	0.0
	2	0	0	3	0.11	5.0	0.0
	2	0	0	3	0.11	5.0	0.0
	2	0	0	3	0.11	5.0	0.0
];

%column_names% parent_index status g_gnd name
mpc.gmd_bus = {
	1	1	2.1258503401360547	'dc_GOODLETTSVILLE_37072'	
	2	1	2.1258503401360547	'dc_LEBANON_37087'	
	3	1	2.1258503401360547	'dc_ANTIOCH_37013'	
	4	1	2.1258503401360547	'dc_BRENTWOOD_37027'	
	5	1	2.1258503401360547	'dc_NASHVILLE_37209'	
	6	1	2.1258503401360547	'dc_MCMINNVILLE_37110'	
	7	1	5.659309564233164	'dc_MURFREESBORO_37130'	
	8	1	2.1258503401360547	'dc_SHELBYVILLE_37160'	
	9	1	2.1258503401360547	'dc_LAFAYETTE_37083'	
	10	1	5.659309564233164	'dc_CLARKSVILLE_37042'	
	11	1	2.1258503401360547	'dc_DICKSON_37055'	
	12	1	2.1258503401360547	'dc_NASHVILLE_37221'	
	13	1	5.659309564233164	'dc_CLARKSVILLE_37040'	
	14	1	2.1258503401360547	'dc_WHITE HOUSE_37188'	
	15	1	2.1258503401360547	'dc_FRANKLIN_37064'	
	16	1	2.1258503401360547	'dc_HENDERSONVILLE_37075'	
	17	1	2.1258503401360547	'dc_HERMITAGE_37076'	
	18	1	2.1258503401360547	'dc_SMYRNA_37167'	
	19	1	2.1258503401360547	'dc_LEXINGTON_38351'	
	20	1	2.1258503401360547	'dc_NASHVILLE_37207'	
	21	1	5.659309564233164	'dc_NASHVILLE_37215'	
	22	1	5.659309564233164	'dc_MURFREESBORO_37129'	
	23	1	2.1258503401360547	'dc_CAMDEN_38320'	
	24	1	2.1258503401360547	'dc_GAINESBORO_38562'	
	25	1	2.1258503401360547	'dc_COLUMBIA_38401'	
	26	1	5.659309564233164	'dc_TULLAHOMA_37388'	
	27	1	2.1258503401360547	'dc_NASHVILLE_37212'	
	28	1	2.1258503401360547	'dc_NASHVILLE_37206'	
	29	1	2.1258503401360547	'dc_NASHVILLE_37211'	
	30	1	2.1258503401360547	'dc_CHATTANOOGA_37405'	
	31	1	2.1258503401360547	'dc_CHATTANOOGA_37421'	
	32	1	5.659309564233164	'dc_ATHENS_37303'	
	33	1	2.1258503401360547	'dc_CLEVELAND_37311'	
	34	1	2.1258503401360547	'dc_SODDY DAISY_37379'	
	35	1	2.1258503401360547	'dc_COPPERHILL_37317'	
	36	1	2.1258503401360547	'dc_DAYTON_37321'	
	37	1	2.1258503401360547	'dc_DUNLAP_37327'	
	38	1	2.1258503401360547	'dc_FAYETTEVILLE_37334'	
	39	1	5.659309564233164	'dc_HIXSON_37343'	
	40	1	2.1258503401360547	'dc_CHATTANOOGA_37404'	
	41	1	2.1258503401360547	'dc_JOHNSON CITY_37601'	
	42	1	5.659309564233164	'dc_JONESBOROUGH_37659'	
	43	1	2.1258503401360547	'dc_GREENEVILLE_37745'	
	44	1	5.659309564233164	'dc_ELIZABETHTON_37643'	
	45	1	2.1258503401360547	'dc_CHURCH HILL_37642'	
	46	1	2.1258503401360547	'dc_KINGSPORT_37660'	
	47	1	2.1258503401360547	'dc_MOUNTAIN CITY_37683'	
	48	1	5.659309564233164	'dc_MARYVILLE_37804'	
	49	1	2.1258503401360547	'dc_CLINTON_37716'	
	50	1	2.1258503401360547	'dc_MORRISTOWN_37814'	
	51	1	2.1258503401360547	'dc_KNOXVILLE_37914'	
	52	1	2.1258503401360547	'dc_LOUDON_37774'	
	53	1	5.659309564233164	'dc_JEFFERSON CITY_37760'	
	54	1	2.1258503401360547	'dc_LA FOLLETTE_37766'	
	55	1	2.1258503401360547	'dc_KNOXVILLE_37918'	
	56	1	2.1258503401360547	'dc_CROSSVILLE_38555'	
	57	1	2.1258503401360547	'dc_TAZEWELL_37879'	
	58	1	2.1258503401360547	'dc_HARRIMAN_37748'	
	59	1	2.1258503401360547	'dc_SEVIERVILLE_37876'	
	60	1	2.1258503401360547	'dc_MARYVILLE_37803'	
	61	1	2.1258503401360547	'dc_KNOXVILLE_37922'	
	62	1	5.659309564233164	'dc_KNOXVILLE_37921'	
	63	1	5.659309564233164	'dc_KNOXVILLE_37919'	
	64	1	2.1258503401360547	'dc_HUMBOLDT_38343'	
	65	1	2.1258503401360547	'dc_ARLINGTON_38002'	
	66	1	2.1258503401360547	'dc_BRIGHTON_38011'	
	67	1	2.1258503401360547	'dc_UNION CITY_38261'	
	68	1	2.1258503401360547	'dc_WHITEVILLE_38075'	
	69	1	2.1258503401360547	'dc_BROWNSVILLE_38012'	
	70	1	5.659309564233164	'dc_CORDOVA_38016'	
	71	1	2.1258503401360547	'dc_COLLIERVILLE_38017'	
	72	1	2.1258503401360547	'dc_DYERSBURG_38024'	
	73	1	2.1258503401360547	'dc_MEMPHIS_38134'	
	74	1	2.1258503401360547	'dc_MEMPHIS_38127'	
	75	1	2.1258503401360547	'dc_MEMPHIS_38103'	
	76	1	2.1258503401360547	'dc_MEMPHIS_38109'	
	77	1	2.1258503401360547	'dc_MEMPHIS_38128'	
	78	1	5.659309564233164	'dc_MEMPHIS_38111'	
	79	1	2.1258503401360547	'dc_MEMPHIS_38115'	
	80	1	2.1258503401360547	'dc_MEMPHIS_38118'	
	81	1	2.1258503401360547	'dc_GERMANTOWN_38138'	
	82	1	2.1258503401360547	'dc_HUNTINGDON_38344'	
	83	1	2.1258503401360547	'dc_PARIS_38242'	
	84	1	2.1258503401360547	'dc_MARTIN_38237'	
	85	1	5.659309564233164	'dc_JACKSON_38305'	
	86	1	2.1258503401360547	'dc_ADAMSVILLE_38310'	
	87	1	2.1258503401360547	'dc_SAVANNAH_38372'	
	88	1	2.1258503401360547	'dc_LAWRENCEBURG_38464'	
	89	1	5.659309564233164	'dc_COOKEVILLE_38501'	
	90	1	2.1258503401360547	'dc_LIVINGSTON_38570'	
	91	1	8.00640512409928	'dc_Gallatin (TN)'	
	92	1	8.00640512409928	'dc_John Sevier'	
	93	1	9.242144177449168	'dc_Johnsonville'	
	94	1	8.64304235090752	'dc_Kingston'	
	95	1	9.242144177449168	'dc_Lagoon Creek'	
	96	1	6.5359477124183005	'dc_Pickwick Landing Dam'	
	97	1	9.242144177449168	'dc_Sequoyah'	
	98	1	2.6034886748242645	'dc_Tims Ford'	
	1	1	0.0	'dc_Johnsonville_g4'	
	2	1	0.0	'dc_GOODLETTSVILLE_37072_230.0'	
	3	1	0.0	'dc_LEBANON_37087_230.0'	
	4	1	0.0	'dc_ANTIOCH_37013_230.0'	
	5	1	0.0	'dc_BRENTWOOD_37027_230.0'	
	6	1	0.0	'dc_NASHVILLE_37209_230.0'	
	7	1	0.0	'dc_MCMINNVILLE_37110_230.0'	
	8	1	0.0	'dc_MURFREESBORO_37130_230.0'	
	9	1	0.0	'dc_SHELBYVILLE_37160_230.0'	
	10	1	0.0	'dc_LAFAYETTE_37083_230.0'	
	11	1	0.0	'dc_CLARKSVILLE_37042_230.0'	
	12	1	0.0	'dc_DICKSON_37055_230.0'	
	13	1	0.0	'dc_NASHVILLE_37221_230.0'	
	14	1	0.0	'dc_CLARKSVILLE_37040_230.0'	
	15	1	0.0	'dc_WHITE HOUSE_37188_230.0'	
	16	1	0.0	'dc_FRANKLIN_37064_230.0'	
	17	1	0.0	'dc_HENDERSONVILLE_37075_230.0'	
	18	1	0.0	'dc_HERMITAGE_37076_230.0'	
	19	1	0.0	'dc_SMYRNA_37167_230.0'	
	20	1	0.0	'dc_LEXINGTON_38351_230.0'	
	21	1	0.0	'dc_NASHVILLE_37207_230.0'	
	22	1	0.0	'dc_NASHVILLE_37215_230.0'	
	23	1	0.0	'dc_MURFREESBORO_37129_230.0'	
	24	1	0.0	'dc_CAMDEN_38320_230.0'	
	25	1	0.0	'dc_GAINESBORO_38562_230.0'	
	26	1	0.0	'dc_COLUMBIA_38401_230.0'	
	27	1	0.0	'dc_TULLAHOMA_37388_230.0'	
	28	1	0.0	'dc_NASHVILLE_37212_230.0'	
	29	1	0.0	'dc_NASHVILLE_37206_230.0'	
	30	1	0.0	'dc_NASHVILLE_37211_230.0'	
	31	1	0.0	'dc_CHATTANOOGA_37405_230.0'	
	32	1	0.0	'dc_CHATTANOOGA_37421_230.0'	
	33	1	0.0	'dc_ATHENS_37303_230.0'	
	34	1	0.0	'dc_CLEVELAND_37311_230.0'	
	35	1	0.0	'dc_SODDY DAISY_37379_230.0'	
	36	1	0.0	'dc_COPPERHILL_37317_230.0'	
	37	1	0.0	'dc_DAYTON_37321_230.0'	
	38	1	0.0	'dc_DUNLAP_37327_230.0'	
	39	1	0.0	'dc_FAYETTEVILLE_37334_230.0'	
	40	1	0.0	'dc_HIXSON_37343_230.0'	
	41	1	0.0	'dc_CHATTANOOGA_37404_230.0'	
	42	1	0.0	'dc_JOHNSON CITY_37601_230.0'	
	43	1	0.0	'dc_JONESBOROUGH_37659_230.0'	
	44	1	0.0	'dc_GREENEVILLE_37745_230.0'	
	45	1	0.0	'dc_ELIZABETHTON_37643_230.0'	
	46	1	0.0	'dc_CHURCH HILL_37642_230.0'	
	47	1	0.0	'dc_KINGSPORT_37660_230.0'	
	48	1	0.0	'dc_MOUNTAIN CITY_37683_230.0'	
	49	1	0.0	'dc_MARYVILLE_37804_230.0'	
	50	1	0.0	'dc_CLINTON_37716_230.0'	
	51	1	0.0	'dc_MORRISTOWN_37814_230.0'	
	52	1	0.0	'dc_KNOXVILLE_37914_230.0'	
	53	1	0.0	'dc_LOUDON_37774_230.0'	
	54	1	0.0	'dc_JEFFERSON CITY_37760_230.0'	
	55	1	0.0	'dc_LA FOLLETTE_37766_230.0'	
	56	1	0.0	'dc_KNOXVILLE_37918_230.0'	
	57	1	0.0	'dc_CROSSVILLE_38555_230.0'	
	58	1	0.0	'dc_TAZEWELL_37879_230.0'	
	59	1	0.0	'dc_HARRIMAN_37748_230.0'	
	60	1	0.0	'dc_SEVIERVILLE_37876_230.0'	
	61	1	0.0	'dc_MARYVILLE_37803_230.0'	
	62	1	0.0	'dc_KNOXVILLE_37922_230.0'	
	63	1	0.0	'dc_KNOXVILLE_37921_230.0'	
	64	1	0.0	'dc_KNOXVILLE_37919_230.0'	
	65	1	0.0	'dc_HUMBOLDT_38343_230.0'	
	66	1	0.0	'dc_ARLINGTON_38002_230.0'	
	67	1	0.0	'dc_BRIGHTON_38011_230.0'	
	68	1	0.0	'dc_UNION CITY_38261_230.0'	
	69	1	0.0	'dc_WHITEVILLE_38075_230.0'	
	70	1	0.0	'dc_BROWNSVILLE_38012_230.0'	
	71	1	0.0	'dc_CORDOVA_38016_230.0'	
	72	1	0.0	'dc_COLLIERVILLE_38017_230.0'	
	73	1	0.0	'dc_DYERSBURG_38024_230.0'	
	74	1	0.0	'dc_MEMPHIS_38134_230.0'	
	75	1	0.0	'dc_MEMPHIS_38127_230.0'	
	76	1	0.0	'dc_MEMPHIS_38103_230.0'	
	77	1	0.0	'dc_MEMPHIS_38109_230.0'	
	78	1	0.0	'dc_MEMPHIS_38128_230.0'	
	79	1	0.0	'dc_MEMPHIS_38111_230.0'	
	80	1	0.0	'dc_MEMPHIS_38115_230.0'	
	81	1	0.0	'dc_MEMPHIS_38118_230.0'	
	82	1	0.0	'dc_GERMANTOWN_38138_230.0'	
	83	1	0.0	'dc_HUNTINGDON_38344_230.0'	
	84	1	0.0	'dc_PARIS_38242_230.0'	
	85	1	0.0	'dc_MARTIN_38237_230.0'	
	86	1	0.0	'dc_JACKSON_38305_230.0'	
	87	1	0.0	'dc_ADAMSVILLE_38310_230.0'	
	88	1	0.0	'dc_SAVANNAH_38372_230.0'	
	89	1	0.0	'dc_LAWRENCEBURG_38464_230.0'	
	90	1	0.0	'dc_COOKEVILLE_38501_230.0'	
	91	1	0.0	'dc_LIVINGSTON_38570_230.0'	
	92	1	0.0	'dc_KNOXVILLE_37921_500.0'	
	93	1	0.0	'dc_JEFFERSON CITY_37760_500.0'	
	94	1	0.0	'dc_HIXSON_37343_500.0'	
	95	1	0.0	'dc_JACKSON_38305_500.0'	
	96	1	0.0	'dc_MURFREESBORO_37129_500.0'	
	97	1	0.0	'dc_JONESBOROUGH_37659_500.0'	
	98	1	0.0	'dc_CLARKSVILLE_37042_500.0'	
	99	1	0.0	'dc_MEMPHIS_38111_500.0'	
	100	1	0.0	'dc_KNOXVILLE_37919_500.0'	
	101	1	0.0	'dc_NASHVILLE_37215_500.0'	
	102	1	0.0	'dc_MURFREESBORO_37130_500.0'	
...
};

%column_names%  f_bus t_bus parent_index br_status br_r br_v len_km name
mpc.gmd_branch = {
	100	119	1	1	0.56074	9.687064370981355	23.961278974303113	'dc_br001'	
	100	112	2	1	0.96278	-41.08308157586014	41.30923931343121	'dc_br002'	
	102	128	3	1	0.19573000000000004	-8.216741328213406	8.38362203226035	'dc_br003'	
	102	117	4	1	0.25921	8.121906440964997	11.101004142134121	'dc_br004'	
	102	116	5	1	0.20807333333333333	1.7471581385142314	8.873105835977155	'dc_br005'	
	103	114	6	1	0.4478866666666667	-16.28269876464363	19.223936296502483	'dc_br006'	
	103	128	7	1	0.2874233333333333	3.9844950436048467	12.281829547385584	'dc_br007'	
	104	112	8	1	0.9186966666666666	-28.525756833200518	39.31435155513658	'dc_br008'	
	104	111	9	1	0.49726000000000004	-3.8793148650232654	21.218585201080955	'dc_br009'	
	104	126	10	1	0.44965000000000005	16.766476710849048	19.281021640249094	'dc_br010'	
	105	136	11	1	1.0386033333333333	37.884226554584984	44.487584784904115	'dc_br011'	
	105	106	12	1	1.1638	-48.36798120094631	49.903200378443124	'dc_br012'	
	106	121	13	1	0.3949866666666666	-16.81104224468134	16.956878828000857	'dc_br013'	
	107	137	14	1	0.96807	5.365147555426271	41.32261408565746	'dc_br014'	
	107	121	15	1	1.0015733333333334	15.651812193095168	42.79728035997275	'dc_br015'	
	107	124	16	1	0.82524	-30.790125638911984	35.37612860046507	'dc_br016'	
	108	239	17	1	0.7705766666666666	-23.541907678274864	33.01583965434563	'dc_br017'	
	108	123	18	1	1.04213	44.296115783822835	44.73143337162554	'dc_br018'	
	109	112	19	1	0.44436000000000003	18.276630493710726	19.090635212671202	'dc_br019'	
	110	111	20	1	0.9098799999999999	37.993368907670344	39.006508113653055	'dc_br020'	
	110	241	21	1	1.14793	-48.69097022176591	49.21414400144359	'dc_br021'	
	111	114	22	1	0.4761	6.865205152679065	20.37618717434976	'dc_br022'	
	113	115	23	1	0.44083333333333335	-7.850209198443768	18.846144525648487	'dc_br023'	
	114	124	24	1	0.5536866666666667	-2.984224508687421	23.66709754011358	'dc_br024'	
	115	119	25	1	0.32621666666666665	-11.19510422507646	13.956261095344527	'dc_br025'	
	116	120	26	1	0.12519666666666668	-5.337677013571093	5.381830046842052	'dc_br026'	
	117	121	27	1	0.35619333333333336	6.651579965508488	15.202461267653442	'dc_br027'	
	117	101	28	1	0.9610166666666666	31.416951989156328	41.13509584018222	'dc_br028'	
	118	241	29	1	1.2096466666666668	24.75982759138402	51.735285875462736	'dc_br029'	
	119	127	30	1	0.1974933333333333	2.3472575929711734	8.454900038053937	'dc_br030'	
	120	128	31	1	0.20983666666666667	-4.619442068280311	8.999062088942622	'dc_br031'	
	120	127	32	1	0.10403666666666667	-3.095707085332857	4.441314990523534	'dc_br032'	
	120	128	33	1	0.20983666666666667	-4.619442068280311	8.999062088942622	'dc_br033'	
	122	241	34	1	0.11990666666666668	5.029077905416772	5.118812186275495	'dc_br034'	
	126	127	35	1	0.19220333333333336	7.927811978910655	8.232575773387158	'dc_br035'	
	129	139	36	1	0.6841733333333333	23.643644656944797	29.31429047697603	'dc_br036'	
	129	136	37	1	0.98923	17.553133987383184	42.28139493972162	'dc_br037'	
	129	138	38	1	0.6312733333333332	26.67057282851207	27.080309511062218	'dc_br038'	
	130	134	39	1	1.5094133333333335	64.78241233423924	64.78262607715382	'dc_br039'	
	130	138	40	1	0.3138733333333333	-11.114885867426338	13.408472951024315	'dc_br040'	
	131	135	41	1	0.9504366666666666	-39.14991942040476	40.76824117431351	'dc_br041'	
	132	134	42	1	0.9292766666666666	39.44768168728425	39.86569408392447	'dc_br042'	
	133	135	43	1	0.8111333333333333	10.752853849450883	34.65143359961478	'dc_br043'	
	133	243	44	1	0.17457	-5.4515043990841	7.475170350701417	'dc_br044'	
	133	243	45	1	0.17457	-5.4515043990841	7.475170350701417	'dc_br045'	
	133	132	46	1	0.5889533333333333	18.33269561152578	25.219416044394393	'dc_br046'	
	135	136	47	1	0.8887200000000001	-37.740662104591436	38.14298700579007	'dc_br047'	
	138	139	48	1	0.3050566666666667	-3.0462845868769484	12.998390417838815	'dc_br048'	
	140	141	49	1	0.23452333333333333	-9.860237924807702	10.08545243189294	'dc_br049'	
	142	140	50	1	1.03155	41.42235957251018	44.1930880975753	'dc_br050'	
	142	247	51	1	0.6330366666666666	-14.016985874959751	27.03208443368916	'dc_br051'	
	143	146	52	1	0.6347999999999999	27.11866829841513	27.2427019478477	'dc_br052'	
	143	140	53	1	0.5836633333333333	-20.334497623025023	25.01550212031069	'dc_br053'	
	144	247	54	1	0.38969666666666675	-11.441914384096457	16.67408852775685	'dc_br054'	
	144	145	55	1	0.62422	26.58198567127775	26.741719367900437	'dc_br055'	
	145	146	56	1	1.5129400000000002	64.65969828902571	64.90112813824943	'dc_br056'	
	145	141	57	1	0.51313	7.41686950718992	21.932162147989963	'dc_br057'	
	147	150	58	1	0.5413433333333333	12.380148475509872	23.18792302545909	'dc_br058'	
	147	161	59	1	0.41967333333333334	-9.476947943636437	17.95114400166551	'dc_br059'	
	148	154	60	1	0.46023	19.697533401423275	19.76679906276997	'dc_br060'	
	148	153	61	1	0.8657966666666668	-17.844166479247267	36.990417217716576	'dc_br061'	
	148	162	62	1	0.5007866666666667	4.145735264489546	21.399168055950753	'dc_br062'	
	149	247	63	1	0.67183	25.414348341470163	28.826534328101772	'dc_br063'	
	149	156	64	1	0.9751233333333333	-33.51975454604181	41.750191169819615	'dc_br064'	
	149	152	65	1	0.5677933333333334	-7.136465186242891	24.285618353036504	'dc_br065'	
	150	158	66	1	0.6806466666666666	16.50790958369216	29.074640887069922	'dc_br066'	
	150	154	67	1	0.4249633333333333	-15.35929130333395	18.182576072551214	'dc_br067'	
	151	236	68	1	0.3403233333333333	-14.228886481654333	14.613066592039903	'dc_br068'	
	151	236	69	1	0.3403233333333333	-14.228886481654333	14.613066592039903	'dc_br069'	
	151	160	70	1	0.3614833333333334	15.415860781700399	15.49171976428581	'dc_br070'	
	152	158	71	1	0.7494166666666667	-18.753100130796977	32.05548451289227	'dc_br071'	
	153	236	72	1	1.3718733333333333	-14.171202347319118	58.596865046392246	'dc_br072'	
	154	161	73	1	0.3632466666666667	-6.460615991528922	15.502417847433946	'dc_br073'	
	154	156	74	1	1.10032	23.98337320791627	47.01337526465175	'dc_br074'	
	155	188	75	1	1.0438933333333333	-41.675491426901814	44.74574074087358	'dc_br075'	
	155	157	76	1	0.96807	41.08790444445139	41.520895174397694	'dc_br076'	
	157	236	77	1	0.2645	10.902344200644254	11.373593847953712	'dc_br077'	
	159	131	78	1	1.0703433333333334	-40.5330322660465	45.862581119344526	'dc_br078'	
	159	160	79	1	0.5695566666666666	-8.952886414411283	24.361842378105724	'dc_br079'	
	160	162	80	1	0.24863000000000002	6.662290125571749	10.660181323639646	'dc_br080'	
	161	162	81	1	0.24510333333333334	-9.119769980333512	10.522149454542088	'dc_br081'	
	163	184	82	1	0.83053	16.884280543523833	35.52521455550745	'dc_br082'	
	163	181	83	1	0.8851933333333334	37.85199205903811	38.003969727923035	'dc_br083'	
	163	171	84	1	0.8217133333333333	-34.097708862873276	35.228643886910625	'dc_br084'	
	164	169	85	1	0.3738266666666667	-7.819120067868151	15.968970379953214	'dc_br085'	
	164	165	86	1	0.6877	-3.6323392703108066	29.371869302247685	'dc_br086'	
	165	234	87	1	0.7176766666666666	29.040389423704163	30.73824626358379	'dc_br087'	
	165	234	88	1	0.7176766666666666	29.040389423704163	30.73824626358379	'dc_br088'	
	165	173	89	1	0.93104	-24.684597766188656	39.800589890663936	'dc_br089'	
	166	183	90	1	0.9857033333333334	42.168473537821924	42.29024285483357	'dc_br090'	
	166	171	91	1	0.9751233333333333	-11.250233468004117	41.671849927959386	'dc_br091'	
	167	185	92	1	0.9539633333333333	40.93206537129824	40.951260297009746	'dc_br092'	
	167	168	93	1	1.0244966666666666	-24.38260479575316	43.82305354620882	'dc_br093'	
	168	234	94	1	0.29624	-10.843881642908462	12.71270248676477	'dc_br094'	
	168	170	95	1	1.3754	-26.45862225726985	58.81073050149605	'dc_br095'	
	169	172	96	1	0.19044000000000003	-7.970095006321682	8.172681673204359	'dc_br096'	
	169	172	97	1	0.19044000000000003	-7.970095006321682	8.172681673204359	'dc_br097'	
	169	170	98	1	0.4373066666666667	17.76959126166893	18.759440873256402	'dc_br098'	
	169	180	99	1	0.30682000000000004	-1.6135523772342337	13.091310822625562	'dc_br099'	
	171	234	100	1	0.9698333333333333	-3.05375698778578	41.42198924519529	'dc_br100'	
	172	176	101	1	0.16927999999999999	-7.203955313745952	7.241073350943745	'dc_br101'	
	173	176	102	1	0.2521566666666667	5.397693473275276	10.760138922751032	'dc_br102'	
	174	177	103	1	0.18162333333333336	6.425812724464966	7.771636853815518	'dc_br103'	
	174	176	104	1	0.21336333333333332	7.433543075375487	9.170139231149275	'dc_br104'	
	174	175	105	1	0.3367966666666667	-11.031685127249569	14.419680701450076	'dc_br105'	
	175	179	106	1	0.35972000000000004	15.04459475324863	15.427763551764864	'dc_br106'	
	177	178	107	1	0.23981333333333335	8.016500030427736	10.24493521469505	'dc_br107'	
	177	179	108	1	0.20278333333333332	-2.4261865183773486	8.677862510754354	'dc_br108'	
	178	180	109	1	0.15341000000000002	6.5776298347144015	6.60385889582272	'dc_br109'	
	181	118	110	1	1.13206	27.97708966649824	48.42264701070892	'dc_br110'	
	182	122	111	1	0.88343	21.140761163321592	37.818906109834344	'dc_br111'	
	183	182	112	1	1.04213	44.47570666946453	44.66994912618647	'dc_br112'	
	185	245	113	1	0.81995	28.5264884205818	35.10408055072634	'dc_br113'	
	186	245	114	1	0.6735933333333334	-22.443248711244973	28.84323230944022	'dc_br114'	
	186	187	115	1	1.4864899999999999	63.34978552291833	63.77030156076109	'dc_br115'	
	187	124	116	1	1.1655633333333333	29.576785427516434	49.825597245060315	'dc_br116'	
	188	189	117	1	1.0773966666666668	33.25020178268464	46.125891145880615	'dc_br117'	
	188	123	118	1	0.9063533333333332	-12.825916442831724	38.75797627402356	'dc_br118'	
	189	123	119	1	1.0773966666666668	-45.982451604715244	46.212482889109744	'dc_br119'	
	190	198	120	1	0.049999999999999996	-9.119769980333512	10.522149454542088	'dc_br120'	
	191	195	121	1	0.39999999999999997	78.19527072655198	84.19921255307125	'dc_br121'	
	194	200	122	1	0.08333333333333333	16.81104224468134	16.956878828000857	'dc_br122'	
	194	199	123	1	0.16666666666666666	-18.36665519662808	35.710236402179106	'dc_br123'	
	196	206	124	1	0.09166666666666667	18.276630493710726	19.090635212671202	'dc_br124'	
	197	235	125	1	0.3666666666666667	49.43929285893168	78.0111979183373	'dc_br125'	
	201	195	126	1	0.15	-30.183975227833137	32.650994785099904	'dc_br126'	
	202	235	127	1	0.3	33.27936224179501	62.70458209907397	'dc_br127'	
	202	197	128	1	0.08333333333333333	-16.194169204043284	17.72272519962712	'dc_br128'	
	203	200	129	1	0.3666666666666667	-70.50832776830453	77.86260253773312	'dc_br129'	
	204	200	130	1	0.27499999999999997	-13.46809304742074	58.20953959973172	'dc_br130'	
	204	192	131	1	0.39999999999999997	82.31061921088953	85.23460188953426	'dc_br131'	
	205	237	132	1	0.2333333333333333	1.792251929563663	49.00794848196124	'dc_br132'	
	206	199	133	1	0.3166666666666667	56.28662391170557	67.65657036369723	'dc_br133'	
	207	205	134	1	0.3333333333333333	-56.866047847414706	70.95689096825977	'dc_br134'	
	207	191	135	1	0.24999999999999997	47.62911594660496	52.32718255586354	'dc_br135'	
	207	190	136	1	0.08333333333333333	-9.476947943636437	17.95114400166551	'dc_br136'	
	235	193	137	1	0.25833333333333336	54.21367984715658	54.22692138196718	'dc_br137'	
	237	198	138	1	0.17500000000000002	36.28954812702705	36.45430152846323	'dc_br138'	
	238	137	139	1	0.66654	-27.72329670537208	28.623646385301058	'dc_br139'	
	238	125	140	1	0.46375666666666665	13.130530207377497	19.810204924447618	'dc_br140'	
	239	115	141	1	0.43554333333333334	-18.670307441540007	18.671375830779613	'dc_br141'	
	239	115	142	1	0.43554333333333334	-18.670307441540007	18.671375830779613	'dc_br142'	
	239	113	143	1	0.46904666666666667	-10.801763345623005	20.085442278348815	'dc_br143'	
	239	101	144	1	0.4954966666666667	18.59123535823564	21.225785218584043	'dc_br144'	
	240	199	145	1	0.15	-24.454341191487647	31.49056935124555	'dc_br145'	
	242	206	146	1	0.375	61.71821260893955	79.17269321139811	'dc_br146'	
	242	199	147	1	0.5583333333333333	118.29774103175909	118.90991585859392	'dc_br147'	
	242	196	148	1	0.3333333333333333	43.369659547399664	70.12501651410983	'dc_br148'	
	242	193	149	1	0.39999999999999997	-73.74409199842374	84.15987128446774	'dc_br149'	
	243	138	150	1	0.38440666666666673	-12.597651598924237	16.48229358170202	'dc_br150'	
	243	130	151	1	0.42672666666666664	-1.4944828123230522	18.189769379732514	'dc_br151'	
	244	205	152	1	0.2916666666666667	55.44072317878213	61.527669409802165	'dc_br152'	
	244	203	153	1	0.5083333333333333	-37.04232307867045	107.73616005282042	'dc_br153'	
	244	192	154	1	0.075	-12.597651598924237	16.48229358170202	'dc_br154'	
	246	193	155	1	0.39166666666666666	-50.202445640501146	82.89050648637222	'dc_br155'	
	248	195	156	1	0.21666666666666665	45.50929724272254	45.851658187343766	'dc_br156'	
	248	191	157	1	0.2333333333333333	-32.57916597356089	49.16252115901401	'dc_br157'	
	106	200	159	1	0.08333333333333333	0.0	0.0	'dc_xf01_series'	
	106	7	159	1	0.06046666666666667	0.0	0.0	'dc_xf01_common'	
	109	196	160	1	0.08333333333333333	0.0	0.0	'dc_xf02_series'	
	109	10	160	1	0.06046666666666667	0.0	0.0	'dc_xf02_common'	
	112	206	161	1	0.08333333333333333	0.0	0.0	'dc_xf03_series'	
	112	13	161	1	0.06046666666666667	0.0	0.0	'dc_xf03_common'	
	120	199	162	1	0.08333333333333333	0.0	0.0	'dc_xf04_series'	
	120	21	162	1	0.06046666666666667	0.0	0.0	'dc_xf04_common'	
	120	199	163	1	0.08333333333333333	0.0	0.0	'dc_xf05_series'	
	120	21	163	1	0.06046666666666667	0.0	0.0	'dc_xf05_common'	
	121	194	164	1	0.08333333333333333	0.0	0.0	'dc_xf06_series'	
	121	22	164	1	0.06046666666666667	0.0	0.0	'dc_xf06_common'	
	125	204	165	1	0.08333333333333333	0.0	0.0	'dc_xf07_series'	
	125	26	165	1	0.06046666666666667	0.0	0.0	'dc_xf07_common'	
	131	205	166	1	0.08333333333333333	0.0	0.0	'dc_xf08_series'	
	131	32	166	1	0.06046666666666667	0.0	0.0	'dc_xf08_common'	
	138	192	167	1	0.08333333333333333	0.0	0.0	'dc_xf09_series'	
	138	39	167	1	0.06046666666666667	0.0	0.0	'dc_xf09_common'	
	141	195	168	1	0.08333333333333333	0.0	0.0	'dc_xf10_series'	
	141	42	168	1	0.06046666666666667	0.0	0.0	'dc_xf10_common'	
	143	201	169	1	0.08333333333333333	0.0	0.0	'dc_xf11_series'	
	143	44	169	1	0.06046666666666667	0.0	0.0	'dc_xf11_common'	
	147	207	170	1	0.08333333333333333	0.0	0.0	'dc_xf12_series'	
	147	48	170	1	0.06046666666666667	0.0	0.0	'dc_xf12_common'	
	152	191	171	1	0.08333333333333333	0.0	0.0	'dc_xf13_series'	
	152	53	171	1	0.06046666666666667	0.0	0.0	'dc_xf13_common'	
	161	190	172	1	0.08333333333333333	0.0	0.0	'dc_xf14_series'	
	161	62	172	1	0.06046666666666667	0.0	0.0	'dc_xf14_common'	
	162	198	173	1	0.08333333333333333	0.0	0.0	'dc_xf15_series'	
	162	63	173	1	0.06046666666666667	0.0	0.0	'dc_xf15_common'	
	169	202	174	1	0.08333333333333333	0.0	0.0	'dc_xf16_series'	
	169	70	174	1	0.06046666666666667	0.0	0.0	'dc_xf16_common'	
	177	197	175	1	0.08333333333333333	0.0	0.0	'dc_xf17_series'	
	177	78	175	1	0.06046666666666667	0.0	0.0	'dc_xf17_common'	
	177	197	176	1	0.08333333333333333	0.0	0.0	'dc_xf18_series'	
	177	78	176	1	0.06046666666666667	0.0	0.0	'dc_xf18_common'	
	184	193	177	1	0.08333333333333333	0.0	0.0	'dc_xf19_series'	
	184	85	177	1	0.06046666666666667	0.0	0.0	'dc_xf19_common'	
	188	203	178	1	0.08333333333333333	0.0	0.0	'dc_xf20_series'	
	188	89	178	1	0.06046666666666667	0.0	0.0	'dc_xf20_common'	
	234	235	179	1	0.08333333333333333	0.0	0.0	'dc_xf21_series'	
	234	95	179	1	0.06046666666666667	0.0	0.0	'dc_xf21_common'	
	234	235	180	1	0.08333333333333333	0.0	0.0	'dc_xf22_series'	
...
};

%column_names%  hi_bus lo_bus gmd_br_hi gmd_br_lo gmd_k gmd_br_series gmd_br_common baseMVA type config
mpc.branch_gmd = {
	2	21	-1	-1	0	-1	-1	100.0	'line'	'none'	
	2	14	-1	-1	0	-1	-1	100.0	'line'	'none'	
	4	30	-1	-1	0	-1	-1	100.0	'line'	'none'	
	4	19	-1	-1	0	-1	-1	100.0	'line'	'none'	
	4	18	-1	-1	0	-1	-1	100.0	'line'	'none'	
	5	16	-1	-1	0	-1	-1	100.0	'line'	'none'	
	5	30	-1	-1	0	-1	-1	100.0	'line'	'none'	
	6	14	-1	-1	0	-1	-1	100.0	'line'	'none'	
	6	13	-1	-1	0	-1	-1	100.0	'line'	'none'	
	6	28	-1	-1	0	-1	-1	100.0	'line'	'none'	
	7	38	-1	-1	0	-1	-1	100.0	'line'	'none'	
	7	8	-1	-1	0	-1	-1	100.0	'line'	'none'	
	8	23	-1	-1	0	-1	-1	100.0	'line'	'none'	
	9	39	-1	-1	0	-1	-1	100.0	'line'	'none'	
	9	23	-1	-1	0	-1	-1	100.0	'line'	'none'	
	9	26	-1	-1	0	-1	-1	100.0	'line'	'none'	
	10	141	-1	-1	0	-1	-1	100.0	'line'	'none'	
	10	25	-1	-1	0	-1	-1	100.0	'line'	'none'	
	11	14	-1	-1	0	-1	-1	100.0	'line'	'none'	
	12	13	-1	-1	0	-1	-1	100.0	'line'	'none'	
	12	143	-1	-1	0	-1	-1	100.0	'line'	'none'	
	13	16	-1	-1	0	-1	-1	100.0	'line'	'none'	
	15	17	-1	-1	0	-1	-1	100.0	'line'	'none'	
	16	26	-1	-1	0	-1	-1	100.0	'line'	'none'	
	17	21	-1	-1	0	-1	-1	100.0	'line'	'none'	
	18	22	-1	-1	0	-1	-1	100.0	'line'	'none'	
	19	23	-1	-1	0	-1	-1	100.0	'line'	'none'	
	19	3	-1	-1	0	-1	-1	100.0	'line'	'none'	
	20	143	-1	-1	0	-1	-1	100.0	'line'	'none'	
	21	29	-1	-1	0	-1	-1	100.0	'line'	'none'	
	22	30	-1	-1	0	-1	-1	100.0	'line'	'none'	
	22	29	-1	-1	0	-1	-1	100.0	'line'	'none'	
	22	30	-1	-1	0	-1	-1	100.0	'line'	'none'	
	24	143	-1	-1	0	-1	-1	100.0	'line'	'none'	
	28	29	-1	-1	0	-1	-1	100.0	'line'	'none'	
	31	41	-1	-1	0	-1	-1	100.0	'line'	'none'	
	31	38	-1	-1	0	-1	-1	100.0	'line'	'none'	
	31	40	-1	-1	0	-1	-1	100.0	'line'	'none'	
	32	36	-1	-1	0	-1	-1	100.0	'line'	'none'	
	32	40	-1	-1	0	-1	-1	100.0	'line'	'none'	
	33	37	-1	-1	0	-1	-1	100.0	'line'	'none'	
	34	36	-1	-1	0	-1	-1	100.0	'line'	'none'	
	35	37	-1	-1	0	-1	-1	100.0	'line'	'none'	
	35	145	-1	-1	0	-1	-1	100.0	'line'	'none'	
	35	145	-1	-1	0	-1	-1	100.0	'line'	'none'	
	35	34	-1	-1	0	-1	-1	100.0	'line'	'none'	
	37	38	-1	-1	0	-1	-1	100.0	'line'	'none'	
	40	41	-1	-1	0	-1	-1	100.0	'line'	'none'	
	42	43	-1	-1	0	-1	-1	100.0	'line'	'none'	
	44	42	-1	-1	0	-1	-1	100.0	'line'	'none'	
	44	149	-1	-1	0	-1	-1	100.0	'line'	'none'	
	45	48	-1	-1	0	-1	-1	100.0	'line'	'none'	
	45	42	-1	-1	0	-1	-1	100.0	'line'	'none'	
	46	149	-1	-1	0	-1	-1	100.0	'line'	'none'	
	46	47	-1	-1	0	-1	-1	100.0	'line'	'none'	
	47	48	-1	-1	0	-1	-1	100.0	'line'	'none'	
	47	43	-1	-1	0	-1	-1	100.0	'line'	'none'	
	49	52	-1	-1	0	-1	-1	100.0	'line'	'none'	
	49	63	-1	-1	0	-1	-1	100.0	'line'	'none'	
	50	56	-1	-1	0	-1	-1	100.0	'line'	'none'	
	50	55	-1	-1	0	-1	-1	100.0	'line'	'none'	
	50	64	-1	-1	0	-1	-1	100.0	'line'	'none'	
	51	149	-1	-1	0	-1	-1	100.0	'line'	'none'	
	51	58	-1	-1	0	-1	-1	100.0	'line'	'none'	
	51	54	-1	-1	0	-1	-1	100.0	'line'	'none'	
	52	60	-1	-1	0	-1	-1	100.0	'line'	'none'	
	52	56	-1	-1	0	-1	-1	100.0	'line'	'none'	
	53	138	-1	-1	0	-1	-1	100.0	'line'	'none'	
	53	138	-1	-1	0	-1	-1	100.0	'line'	'none'	
	53	62	-1	-1	0	-1	-1	100.0	'line'	'none'	
	54	60	-1	-1	0	-1	-1	100.0	'line'	'none'	
	55	138	-1	-1	0	-1	-1	100.0	'line'	'none'	
	56	63	-1	-1	0	-1	-1	100.0	'line'	'none'	
	56	58	-1	-1	0	-1	-1	100.0	'line'	'none'	
	57	90	-1	-1	0	-1	-1	100.0	'line'	'none'	
	57	59	-1	-1	0	-1	-1	100.0	'line'	'none'	
	59	138	-1	-1	0	-1	-1	100.0	'line'	'none'	
	61	33	-1	-1	0	-1	-1	100.0	'line'	'none'	
	61	62	-1	-1	0	-1	-1	100.0	'line'	'none'	
	62	64	-1	-1	0	-1	-1	100.0	'line'	'none'	
	63	64	-1	-1	0	-1	-1	100.0	'line'	'none'	
	65	86	-1	-1	0	-1	-1	100.0	'line'	'none'	
	65	83	-1	-1	0	-1	-1	100.0	'line'	'none'	
	65	73	-1	-1	0	-1	-1	100.0	'line'	'none'	
	66	71	-1	-1	0	-1	-1	100.0	'line'	'none'	
	66	67	-1	-1	0	-1	-1	100.0	'line'	'none'	
	67	136	-1	-1	0	-1	-1	100.0	'line'	'none'	
	67	136	-1	-1	0	-1	-1	100.0	'line'	'none'	
	67	75	-1	-1	0	-1	-1	100.0	'line'	'none'	
	68	85	-1	-1	0	-1	-1	100.0	'line'	'none'	
	68	73	-1	-1	0	-1	-1	100.0	'line'	'none'	
	69	87	-1	-1	0	-1	-1	100.0	'line'	'none'	
	69	70	-1	-1	0	-1	-1	100.0	'line'	'none'	
	70	136	-1	-1	0	-1	-1	100.0	'line'	'none'	
	70	72	-1	-1	0	-1	-1	100.0	'line'	'none'	
	71	74	-1	-1	0	-1	-1	100.0	'line'	'none'	
	71	74	-1	-1	0	-1	-1	100.0	'line'	'none'	
	71	72	-1	-1	0	-1	-1	100.0	'line'	'none'	
	71	82	-1	-1	0	-1	-1	100.0	'line'	'none'	
	73	136	-1	-1	0	-1	-1	100.0	'line'	'none'	
	74	78	-1	-1	0	-1	-1	100.0	'line'	'none'	
	75	78	-1	-1	0	-1	-1	100.0	'line'	'none'	
	76	79	-1	-1	0	-1	-1	100.0	'line'	'none'	
	76	78	-1	-1	0	-1	-1	100.0	'line'	'none'	
	76	77	-1	-1	0	-1	-1	100.0	'line'	'none'	
	77	81	-1	-1	0	-1	-1	100.0	'line'	'none'	
	79	80	-1	-1	0	-1	-1	100.0	'line'	'none'	
	79	81	-1	-1	0	-1	-1	100.0	'line'	'none'	
	80	82	-1	-1	0	-1	-1	100.0	'line'	'none'	
	83	20	-1	-1	0	-1	-1	100.0	'line'	'none'	
	84	24	-1	-1	0	-1	-1	100.0	'line'	'none'	
	85	84	-1	-1	0	-1	-1	100.0	'line'	'none'	
	87	147	-1	-1	0	-1	-1	100.0	'line'	'none'	
	88	147	-1	-1	0	-1	-1	100.0	'line'	'none'	
	88	89	-1	-1	0	-1	-1	100.0	'line'	'none'	
	89	26	-1	-1	0	-1	-1	100.0	'line'	'none'	
	90	91	-1	-1	0	-1	-1	100.0	'line'	'none'	
	90	25	-1	-1	0	-1	-1	100.0	'line'	'none'	
	91	25	-1	-1	0	-1	-1	100.0	'line'	'none'	
	92	100	-1	-1	0	-1	-1	100.0	'line'	'none'	
	93	97	-1	-1	0	-1	-1	100.0	'line'	'none'	
	96	102	-1	-1	0	-1	-1	100.0	'line'	'none'	
	96	101	-1	-1	0	-1	-1	100.0	'line'	'none'	
	98	108	-1	-1	0	-1	-1	100.0	'line'	'none'	
	99	137	-1	-1	0	-1	-1	100.0	'line'	'none'	
	103	97	-1	-1	0	-1	-1	100.0	'line'	'none'	
	104	137	-1	-1	0	-1	-1	100.0	'line'	'none'	
	104	99	-1	-1	0	-1	-1	100.0	'line'	'none'	
	105	102	-1	-1	0	-1	-1	100.0	'line'	'none'	
	106	102	-1	-1	0	-1	-1	100.0	'line'	'none'	
	106	94	-1	-1	0	-1	-1	100.0	'line'	'none'	
	107	139	-1	-1	0	-1	-1	100.0	'line'	'none'	
	108	101	-1	-1	0	-1	-1	100.0	'line'	'none'	
	109	107	-1	-1	0	-1	-1	100.0	'line'	'none'	
	109	93	-1	-1	0	-1	-1	100.0	'line'	'none'	
	109	92	-1	-1	0	-1	-1	100.0	'line'	'none'	
	137	95	-1	-1	0	-1	-1	100.0	'line'	'none'	
	139	100	-1	-1	0	-1	-1	100.0	'line'	'none'	
	140	39	-1	-1	0	-1	-1	100.0	'line'	'none'	
	140	27	-1	-1	0	-1	-1	100.0	'line'	'none'	
	141	17	-1	-1	0	-1	-1	100.0	'line'	'none'	
	141	17	-1	-1	0	-1	-1	100.0	'line'	'none'	
	141	15	-1	-1	0	-1	-1	100.0	'line'	'none'	
	141	3	-1	-1	0	-1	-1	100.0	'line'	'none'	
	142	101	-1	-1	0	-1	-1	100.0	'line'	'none'	
	144	108	-1	-1	0	-1	-1	100.0	'line'	'none'	
	144	101	-1	-1	0	-1	-1	100.0	'line'	'none'	
	144	98	-1	-1	0	-1	-1	100.0	'line'	'none'	
	144	95	-1	-1	0	-1	-1	100.0	'line'	'none'	
	145	40	-1	-1	0	-1	-1	100.0	'line'	'none'	
	145	32	-1	-1	0	-1	-1	100.0	'line'	'none'	
	146	107	-1	-1	0	-1	-1	100.0	'line'	'none'	
	146	105	-1	-1	0	-1	-1	100.0	'line'	'none'	
	146	94	-1	-1	0	-1	-1	100.0	'line'	'none'	
	148	95	-1	-1	0	-1	-1	100.0	'line'	'none'	
	150	97	-1	-1	0	-1	-1	100.0	'line'	'none'	
	150	93	-1	-1	0	-1	-1	100.0	'line'	'none'	
	5	21	-1	-1	0	-1	-1	100.0	'series_cap'	'none'	
	102	8	-1	-1	1.8	158	159	100.0	'xf'	'gwye-gwye-auto'	
	98	11	-1	-1	1.8	160	161	100.0	'xf'	'gwye-gwye-auto'	
	108	14	-1	-1	1.8	162	163	100.0	'xf'	'gwye-gwye-auto'	
	101	22	-1	-1	1.8	164	165	100.0	'xf'	'gwye-gwye-auto'	
	101	22	-1	-1	1.8	166	167	100.0	'xf'	'gwye-gwye-auto'	
	96	23	-1	-1	1.8	168	169	100.0	'xf'	'gwye-gwye-auto'	
	106	27	-1	-1	1.8	170	171	100.0	'xf'	'gwye-gwye-auto'	
	107	33	-1	-1	1.8	172	173	100.0	'xf'	'gwye-gwye-auto'	
	94	40	-1	-1	1.8	174	175	100.0	'xf'	'gwye-gwye-auto'	
	97	43	-1	-1	1.8	176	177	100.0	'xf'	'gwye-gwye-auto'	
	103	45	-1	-1	1.8	178	179	100.0	'xf'	'gwye-gwye-auto'	
	109	49	-1	-1	1.8	180	181	100.0	'xf'	'gwye-gwye-auto'	
	93	54	-1	-1	1.8	182	183	100.0	'xf'	'gwye-gwye-auto'	
	92	63	-1	-1	1.8	184	185	100.0	'xf'	'gwye-gwye-auto'	
	100	64	-1	-1	1.8	186	187	100.0	'xf'	'gwye-gwye-auto'	
	104	71	-1	-1	1.8	188	189	100.0	'xf'	'gwye-gwye-auto'	
	99	79	-1	-1	1.8	190	191	100.0	'xf'	'gwye-gwye-auto'	
	99	79	-1	-1	1.8	192	193	100.0	'xf'	'gwye-gwye-auto'	
	95	86	-1	-1	1.8	194	195	100.0	'xf'	'gwye-gwye-auto'	
	105	90	-1	-1	1.8	196	197	100.0	'xf'	'gwye-gwye-auto'	
	137	136	-1	-1	1.8	198	199	100.0	'xf'	'gwye-gwye-auto'	
	137	136	-1	-1	1.8	200	201	100.0	'xf'	'gwye-gwye-auto'	
	137	127	202	-1	1.8	-1	-1	100.0	'xf'	'gwye-delta'	
	137	128	203	-1	1.8	-1	-1	100.0	'xf'	'gwye-delta'	
	137	126	204	-1	1.8	-1	-1	100.0	'xf'	'gwye-delta'	
	137	125	205	-1	1.8	-1	-1	100.0	'xf'	'gwye-delta'	
	137	124	206	-1	1.8	-1	-1	100.0	'xf'	'gwye-delta'	
	139	138	-1	-1	1.8	207	208	100.0	'xf'	'gwye-gwye-auto'	
	139	138	-1	-1	1.8	209	210	100.0	'xf'	'gwye-gwye-auto'	
	139	122	211	-1	1.8	-1	-1	100.0	'xf'	'gwye-delta'	
	139	121	212	-1	1.8	-1	-1	100.0	'xf'	'gwye-delta'	
	139	120	213	-1	1.8	-1	-1	100.0	'xf'	'gwye-delta'	
	139	123	214	-1	1.8	-1	-1	100.0	'xf'	'gwye-delta'	
	140	135	215	-1	1.5	-1	-1	100.0	'xf'	'gwye-delta'	
	142	141	-1	-1	1.8	216	217	100.0	'xf'	'gwye-gwye-auto'	
	142	141	-1	-1	1.8	218	219	100.0	'xf'	'gwye-gwye-auto'	
	142	112	220	-1	1.8	-1	-1	100.0	'xf'	'gwye-delta'	
	142	111	221	-1	1.8	-1	-1	100.0	'xf'	'gwye-delta'	
	142	110	222	-1	1.8	-1	-1	100.0	'xf'	'gwye-delta'	
	144	143	-1	-1	1.8	223	224	100.0	'xf'	'gwye-gwye-auto'	
	144	143	-1	-1	1.8	225	226	100.0	'xf'	'gwye-gwye-auto'	
	144	119	227	-1	1.8	-1	-1	100.0	'xf'	'gwye-delta'	
...
};

%column_names%  lat lon
mpc.bus_gmd = {
	36.0282	-87.9858	
	36.4362	-86.8408	
	36.2233	-86.1935	
	36.0522	-86.6325	
	35.9625	-86.7679	
	36.2313	-86.9813	
	35.7301	-85.7476	
	35.8408	-86.2826	
	35.5018	-86.6416	
	36.5242	-86.1379	
	36.5248	-87.5031	
	35.9637	-87.4458	
	36.0433	-87.0244	
	36.4751	-87.2991	
	36.4682	-86.5208	
	35.8704	-86.9483	
	36.3138	-86.6083	
	36.1306	-86.6131	
	35.984	-86.5424	
	35.6188	-88.2598	
	36.2387	-86.7329	
	36.1368	-86.6724	
	35.8608	-86.4687	
	36.0368	-88.0416	
	36.4681	-85.6435	
	35.6588	-86.9813	
	35.3304	-86.134	
	36.1455	-86.7949	
	36.1655	-86.7068	
	36.0672	-86.7237	
	35.1732	-85.5225	
	35.0633	-85.1079	
	35.4672	-84.4816	
	35.1167	-84.8303	
	35.2728	-85.0316	
	35.0648	-84.3977	
	35.5697	-84.9132	
	35.5199	-85.3294	
	35.1325	-86.5826	
	35.1309	-85.2298	
	35.017	-85.2632	
	36.3073	-82.3466	
	36.3264	-82.4564	
	36.1685	-82.8074	
	36.4386	-82.12	
	36.4861	-82.8358	
	36.5124	-82.5391	
	36.462	-81.8175	
	35.8497	-83.8536	
	36.129	-84.1057	
	36.2542	-83.2464	
	36.0264	-83.7164	
	35.8786	-84.3042	
	36.045	-83.3257	
	36.421	-84.3043	
	36.1141	-83.8869	
	35.9917	-85.0381	
	36.4785	-83.6199	
	35.9378	-84.5826	
	35.8107	-83.5335	
	35.6606	-84.0345	
	35.8648	-84.1335	
	35.9871	-83.9586	
	35.9398	-84.0597	
	35.9444	-88.9889	
	35.2984	-89.6813	
	35.5611	-89.7213	
	36.3858	-89.2419	
	35.2639	-89.0126	
	35.5921	-89.2811	
	35.1729	-89.7672	
	35.1187	-89.5722	
	36.0242	-89.367	
	35.1892	-89.8547	
	35.2797	-89.9931	
	35.1474	-90.0154	
	35.0637	-90.1364	
	35.1958	-89.9338	
	35.108	-89.9449	
	35.0505	-89.857	
	35.0329	-89.9715	
	35.0558	-89.7849	
	35.975	-88.5693	
	36.3194	-88.2766	
	36.3569	-88.772	
	35.6627	-88.8021	
	35.2526	-88.5628	
	35.2315	-88.0034	
	35.2974	-87.3072	
	36.1385	-85.5007	
	36.4266	-85.1306	
	35.9871	-83.9586	
	36.045	-83.3257	
	35.1309	-85.2298	
	35.6627	-88.8021	
	35.8608	-86.4687	
	36.3264	-82.4564	
	36.5248	-87.5031	
	35.108	-89.9449	
	35.9398	-84.0597	
	36.1368	-86.6724	
	35.8408	-86.2826	
	36.4386	-82.12	
	35.1729	-89.7672	
	36.1385	-85.5007	
	35.3304	-86.134	
	35.4672	-84.4816	
	36.4751	-87.2991	
	35.8497	-83.8536	
	36.3156	-86.4004	
	36.3156	-86.4004	
	36.3156	-86.4004	
	36.3768	-82.9634	
	36.3768	-82.9634	
	36.3768	-82.9634	
	36.0282	-87.9858	
	36.0282	-87.9858	
	36.0282	-87.9858	
	36.0282	-87.9858	
	35.9086	-84.4618	
	35.9086	-84.4618	
...